Version 4
SHEET 1 1592 680
WIRE -272 -400 -272 -432
WIRE -160 -400 -160 -432
WIRE -272 -304 -272 -320
WIRE -160 -304 -160 -320
WIRE -672 -160 -784 -160
WIRE -784 -128 -784 -160
WIRE -672 -112 -672 -160
WIRE 432 -16 400 -16
WIRE -912 0 -1056 0
WIRE -672 0 -672 -32
WIRE -672 0 -832 0
WIRE -448 0 -672 0
WIRE -336 0 -448 0
WIRE 16 0 16 -16
WIRE 16 0 -256 0
WIRE 64 0 16 0
WIRE -1056 48 -1056 0
WIRE 16 64 0 64
WIRE 64 64 16 64
WIRE 592 64 400 64
WIRE 640 64 592 64
WIRE 512 96 400 96
WIRE 512 112 512 96
WIRE -672 128 -672 0
WIRE 64 128 32 128
WIRE 432 128 400 128
WIRE -1056 160 -1056 128
WIRE 432 160 400 160
WIRE 16 192 16 64
WIRE 64 192 16 192
WIRE -672 320 -672 208
WIRE -336 320 -672 320
WIRE -64 320 -256 320
WIRE 64 320 -64 320
WIRE 432 336 400 336
WIRE 32 352 32 128
WIRE 64 352 32 352
WIRE -672 384 -672 320
WIRE 32 384 32 352
WIRE 432 384 400 384
WIRE -672 480 -672 464
FLAG 432 160 RF
FLAG 0 64 RF
FLAG 432 128 RA
FLAG 16 -16 RA
FLAG 512 112 0
FLAG 32 384 0
FLAG -64 320 REFin
FLAG -272 -304 0
FLAG -160 -304 0
FLAG -272 -432 VDD
FLAG -160 -432 VSS
FLAG 432 -16 VDD
FLAG 432 384 VSS
FLAG -672 480 0
FLAG -784 -128 0
FLAG 432 336 status
FLAG -448 0 input
FLAG 592 64 output
FLAG -1056 160 0
SYMBOL AD630 192 144 R0
SYMATTR InstName U1
SYMBOL voltage -272 -416 R0
WINDOW 123 0 0 Left 0
WINDOW 39 0 0 Left 0
SYMATTR InstName V1
SYMATTR Value 15
SYMBOL voltage -160 -416 R0
WINDOW 123 0 0 Left 0
WINDOW 39 0 0 Left 0
SYMATTR InstName V2
SYMATTR Value -15
SYMBOL voltage -672 368 R0
WINDOW 123 0 0 Left 0
WINDOW 39 0 0 Left 0
SYMATTR InstName V3
SYMATTR Value SINE(0 10 1Meg)
SYMBOL res -240 304 R90
WINDOW 0 0 56 VBottom 2
WINDOW 3 32 56 VTop 2
SYMATTR InstName R1
SYMATTR Value 0.01
SYMBOL res -688 112 R0
SYMATTR InstName R2
SYMATTR Value 100k
SYMBOL res -688 -128 R0
SYMATTR InstName R3
SYMATTR Value 1
SYMBOL res -240 -16 R90
WINDOW 0 0 56 VBottom 2
WINDOW 3 32 56 VTop 2
SYMATTR InstName R4
SYMATTR Value 0.01
SYMBOL bv -1056 32 R0
SYMATTR InstName B1
SYMATTR Value V=(white(4e7*time)/2)
SYMBOL res -816 -16 R90
WINDOW 0 0 56 VBottom 2
WINDOW 3 32 56 VTop 2
SYMATTR InstName R5
SYMATTR Value 5k
TEXT 58 452 Left 2 !.tran 10u
TEXT -232 -16 Left 2 ;signal input
TEXT 288 456 Left 2 !* speeds up simulation\n* https://ez.analog.com/design-tools-and-calculators/f/q-a/90427/ad630-ltspice-simulation-problem/201057\n.options cshunt=1e-15
TEXT -296 -512 Left 2 ;supply voltage
