Version 4
SHEET 1 1592 680
WIRE -416 -816 -448 -816
WIRE -320 -800 -352 -800
WIRE -80 -800 -320 -800
WIRE -560 -784 -1328 -784
WIRE -416 -784 -560 -784
WIRE -320 -784 -320 -800
WIRE -560 -768 -560 -784
WIRE -448 -688 -448 -816
WIRE -320 -688 -320 -704
WIRE -320 -688 -448 -688
WIRE -560 -672 -560 -688
WIRE -320 -672 -320 -688
WIRE -320 -576 -320 -592
WIRE -1440 -128 -1552 -128
WIRE -1552 -96 -1552 -128
WIRE -1440 -80 -1440 -128
WIRE 1264 -80 1120 -80
WIRE 432 -16 400 -16
WIRE -80 0 -80 -800
WIRE 16 0 16 -16
WIRE 16 0 -80 0
WIRE 64 0 16 0
WIRE 1120 16 1120 -80
WIRE 1168 16 1120 16
WIRE -1680 32 -1824 32
WIRE -1440 32 -1440 0
WIRE -1440 32 -1600 32
WIRE -1328 32 -1328 -784
WIRE -1328 32 -1440 32
WIRE -1216 32 -1328 32
WIRE 432 32 400 32
WIRE 768 32 736 32
WIRE 1264 32 1264 -80
WIRE 1264 32 1232 32
WIRE 864 48 832 48
WIRE 928 48 864 48
WIRE 1040 48 1008 48
WIRE 1168 48 1040 48
WIRE 64 64 -16 64
WIRE 432 64 432 32
WIRE 432 64 400 64
WIRE 592 64 432 64
WIRE 768 64 592 64
WIRE 864 64 864 48
WIRE -1824 80 -1824 32
WIRE 1040 80 1040 48
WIRE 512 96 400 96
WIRE 512 112 512 96
WIRE -16 128 -16 64
WIRE -16 128 -64 128
WIRE 64 128 16 128
WIRE 432 128 400 128
WIRE -1440 160 -1440 32
WIRE 16 160 16 128
WIRE 432 160 400 160
WIRE 736 160 736 32
WIRE 864 160 864 144
WIRE 864 160 736 160
WIRE 1040 160 1040 144
WIRE 864 176 864 160
WIRE -1824 192 -1824 160
WIRE -16 192 -16 128
WIRE 64 192 -16 192
WIRE 864 272 864 256
WIRE -336 320 -448 320
WIRE -80 320 -256 320
WIRE -64 320 -80 320
WIRE 64 320 32 320
WIRE 576 336 576 320
WIRE 576 336 400 336
WIRE 624 336 576 336
WIRE -1440 352 -1440 240
WIRE -448 352 -448 320
WIRE -448 352 -1440 352
WIRE -80 352 -80 320
WIRE 64 352 -80 352
WIRE 32 384 32 320
WIRE 432 384 400 384
WIRE -1440 416 -1440 352
WIRE -2752 512 -2752 480
WIRE -2640 512 -2640 480
WIRE -1440 512 -1440 496
WIRE -2752 608 -2752 592
WIRE -2640 608 -2640 592
FLAG 432 160 RF
FLAG 432 128 RA
FLAG 16 -16 RA
FLAG 512 112 0
FLAG 32 384 0
FLAG -64 320 REFin
FLAG -2752 608 0
FLAG -2640 608 0
FLAG -2752 480 VDD
FLAG -2640 480 VSS
FLAG 432 -16 VDD
FLAG 432 384 VSS
FLAG -1440 512 0
FLAG -1552 -96 0
FLAG 624 336 status
FLAG -1216 32 input
FLAG 592 64 output
FLAG -1824 192 0
FLAG -560 -672 0
FLAG -320 -576 0
FLAG -384 -768 VSS
FLAG -384 -832 VDD
FLAG -1824 32 noise
FLAG 576 240 VDD
FLAG -64 128 RF
FLAG 16 160 0
FLAG 864 272 0
FLAG 800 80 VSS
FLAG 800 16 VDD
FLAG 1040 160 0
FLAG 1200 64 VSS
FLAG 1200 0 VDD
SYMBOL AD630 192 144 R0
SYMATTR InstName U1
SYMBOL voltage -2752 496 R0
WINDOW 3 -238 95 Left 2
WINDOW 123 0 0 Left 0
WINDOW 39 0 0 Left 0
SYMATTR InstName V1
SYMATTR Value {SupplyVoltageP}
SYMBOL voltage -2640 496 R0
WINDOW 123 0 0 Left 0
WINDOW 39 0 0 Left 0
SYMATTR InstName V2
SYMATTR Value {SupplyVoltageN}
SYMBOL voltage -1440 400 R0
WINDOW 123 0 0 Left 0
WINDOW 39 0 0 Left 0
SYMATTR InstName V3
SYMATTR Value PULSE(-5 5 0 10n 10n {Ton} {Tpulse})
SYMBOL res -240 304 R90
WINDOW 0 0 56 VBottom 2
WINDOW 3 32 56 VTop 2
SYMATTR InstName R1
SYMATTR Value 0.01
SYMBOL res -1456 144 R0
SYMATTR InstName R2
SYMATTR Value 100k
SYMBOL res -1456 -96 R0
SYMATTR InstName R3
SYMATTR Value 100
SYMBOL bv -1824 64 R0
SYMATTR InstName B1
SYMATTR Value V=(white(1e12*time))
SYMBOL res -1584 16 R90
WINDOW 0 0 56 VBottom 2
WINDOW 3 32 56 VTop 2
SYMATTR InstName R5
SYMATTR Value 1k
SYMBOL res -576 -784 R0
SYMATTR InstName R8
SYMATTR Value 100k
SYMBOL Opamps\\UniversalOpAmp1 -384 -800 R0
SYMATTR InstName U2
SYMBOL res -336 -800 R0
SYMATTR InstName R4
SYMATTR Value 10k
SYMBOL res -336 -688 R0
SYMATTR InstName R7
SYMATTR Value 1k
SYMBOL res 560 224 R0
SYMATTR InstName R9
SYMATTR Value 100k
SYMBOL Opamps\\UniversalOpAmp1 800 48 R0
SYMATTR InstName U3
SYMBOL res 848 48 R0
SYMATTR InstName R6
SYMATTR Value 10k
SYMBOL res 848 160 R0
SYMATTR InstName R10
SYMATTR Value 10k
SYMBOL cap 1024 80 R0
SYMATTR InstName C1
SYMATTR Value 100n
SYMBOL Opamps\\UniversalOpAmp1 1200 32 R0
SYMATTR InstName U4
SYMBOL res 1024 32 R90
WINDOW 0 0 56 VBottom 2
WINDOW 3 32 56 VTop 2
SYMATTR InstName R11
SYMATTR Value 100
TEXT 58 452 Left 2 !.tran {Tsim}
TEXT -232 -16 Left 2 ;signal input
TEXT 56 504 Left 2 !* speeds up simulation\n* https://ez.analog.com/design-tools-and-calculators/f/q-a/90427/ad630-ltspice-simulation-problem/201057\n.options cshunt=1e-15
TEXT -2776 400 Left 2 ;supply voltage
TEXT -2544 448 Left 2 !.param SupplyVoltageP=5 \n.param SupplyVoltageN=-1*{SupplyVoltageP}
TEXT -304 256 Left 2 ;needs bipolar input signal
TEXT -1872 416 Left 2 !.param Fsystem=100k\n.param Tpulse = 1/{Fsystem}\n.param Ton = 0.5*{Tpulse}\n.param Tsim = 5*{Tpulse}
